Version 4
SHEET 1 1540 1076
WIRE 112 -192 -368 -192
WIRE 112 -144 112 -192
WIRE -64 -64 -208 -64
WIRE 64 -64 16 -64
WIRE -208 -32 -208 -64
WIRE -368 16 -368 -192
WIRE -208 80 -208 48
WIRE 112 80 112 -48
WIRE 112 80 -208 80
WIRE 192 80 112 80
WIRE 304 80 224 80
WIRE 432 80 384 80
WIRE 576 80 512 80
WIRE 672 80 576 80
WIRE 704 80 672 80
WIRE 576 144 576 80
WIRE 208 176 208 96
WIRE 256 176 208 176
WIRE 304 176 256 176
WIRE 704 176 704 80
WIRE 112 192 112 80
WIRE 576 240 576 208
WIRE -368 368 -368 96
WIRE 112 368 112 256
WIRE 112 368 -368 368
WIRE 576 368 576 320
WIRE 576 368 112 368
WIRE 704 368 704 256
WIRE 704 368 576 368
WIRE -368 416 -368 368
WIRE -16 496 -112 496
WIRE 32 496 -16 496
WIRE 32 656 32 496
WIRE 80 656 32 656
WIRE 256 656 176 656
WIRE 288 656 256 656
WIRE -336 688 -368 688
WIRE -160 688 -336 688
WIRE 16 704 -96 704
WIRE 80 704 16 704
WIRE -224 720 -272 720
WIRE -160 720 -224 720
WIRE -272 800 -272 720
WIRE -272 912 -272 880
WIRE -272 1040 -272 992
FLAG -368 416 0
FLAG 672 80 out
FLAG 256 176 isw
FLAG 256 656 gate
FLAG -336 688 isw
FLAG -224 720 in
FLAG 16 704 comp
FLAG -16 496 clk
FLAG -272 1040 0
SYMBOL ind 416 96 R270
WINDOW 0 32 56 VTop 2
WINDOW 3 5 56 VBottom 2
SYMATTR InstName L1
SYMATTR Value 100µ
SYMBOL cap 560 144 R0
SYMATTR InstName C1
SYMATTR Value 10µ
SYMBOL res 688 160 R0
SYMATTR InstName R1
SYMATTR Value 5
SYMBOL voltage -368 0 R0
SYMATTR InstName V1
SYMATTR Value 12
SYMBOL res 400 64 R90
WINDOW 0 0 56 VBottom 2
WINDOW 3 32 56 VTop 2
SYMATTR InstName R2
SYMATTR Value 50m
SYMBOL res 560 224 R0
SYMATTR InstName R3
SYMATTR Value 200m
SYMBOL Control\\isense 208 80 R0
WINDOW 0 0 -28 Bottom 2
SYMATTR InstName U4
SYMBOL Control\\comp -128 704 R0
WINDOW 3 8 29 Left 2
WINDOW 123 13 53 Left 2
SYMATTR Value Vhigh=1
SYMATTR Value2 Vlow=0
SYMATTR InstName U3
SYMBOL Control\\clk -144 496 R0
WINDOW 38 -72 19 Bottom 2
WINDOW 3 3 74 Bottom 2
WINDOW 123 7 107 Bottom 2
WINDOW 39 2 135 Bottom 2
SYMATTR Value tdelay=0 Vhigh=1
SYMATTR Value2 SR=1e8 ton=3u
SYMATTR InstName U5
SYMBOL Digital\\srflop 128 608 R0
SYMATTR InstName A1
SYMBOL nmos 64 -144 R0
SYMATTR InstName M1
SYMATTR Value IRF530
SYMBOL res 32 -80 R90
WINDOW 0 0 56 VBottom 2
WINDOW 3 32 56 VTop 2
SYMATTR InstName R4
SYMATTR Value 10
SYMBOL Misc\\Epoly -208 -48 R0
WINDOW 0 49 34 Left 2
WINDOW 3 38 60 Left 2
SYMATTR InstName E1
SYMATTR Value value={V(gate)*15}
SYMBOL Control\\idiode 128 256 R180
WINDOW 3 24 -28 Left 2
WINDOW 123 24 -56 Left 2
SYMATTR InstName U1
SYMBOL voltage -272 896 R0
WINDOW 123 0 0 Left 0
WINDOW 39 0 0 Left 0
SYMATTR InstName V2
SYMATTR Value 1.15
SYMBOL voltage -272 784 R0
WINDOW 123 0 0 Left 0
WINDOW 39 0 0 Left 0
WINDOW 0 47 36 Left 2
WINDOW 3 49 65 Left 2
SYMATTR InstName Vsin
SYMATTR Value SINE(0 0.05 {Freq})
TEXT 864 224 Left 2 !.options reltol=10m
TEXT 368 456 Left 2 !.step dec param Freq 100 100k 15
TEXT 368 520 Left 2 !.save V(out) V(in)\n.option numdgt=15   ; double precision for data\n.option nomarch       ; do not plot marching waveforms
TEXT 368 656 Left 2 !.measure Aavg              avg       V(out)                                                                ; average output voltage\n.measure Bavg              avg       V(in)                                                                   ; average input signal\n.measure Are                  avg       2*(V(out)-Aavg)*cos(360*Freq*time)      ; A real part\n.measure Aim                 avg       2*(V(out)-Aavg)*sin(360*Freq*time)        ; A imag part\n.measure Bre                  avg       2*(V(in)-Bavg)*cos(360*Freq*time)         ; B real part\n.measure Bim                 avg        2*(V(in)-Bavg)*sin(360*Freq*time)          ; B imag part\n.measure Amag             param   hypot(Are,Aim)                                              ; A magnitude\n.measure Bmag             param   hypot(Bre,Bim)                                              ; B magnitude\n.measure Aphi                param   atan2(Aim, Are)                                             ; A phase\n.measure Bphi                param   atan2(Bim, Bre)                                             ; B phase\n.measure GainMag       param    20*log10(Amag/Bmag)                             ; Gain magnitude\n.measure GainPhi          param    Bphi - Aphi                                                     ; Gain phase
TEXT 856 176 Left 2 !.tran 0 {t0+5/Freq} {t0} 0.1u
TEXT 856 128 Left 2 !.param t0=5m
